#!/sbin/sh
SKIPUNZIP=0
. "$MODPATH/customize.sh"
